Flow Title=Flow Hydrograph 2
Program Version=6.30
Use Restart= 0 
Initial Flow Loc=Bald Eagle      ,Loc Hav         ,138154.4,2000
Boundary Location=Bald Eagle      ,Loc Hav         ,138154.4,        ,                ,                ,                ,                                ,                                
Interval=1HOUR
Flow Hydrograph= 150 
 1075.53 1301.64 1676.94 2199.12 2864.95 3670.34 4610.32 5679.08 6870.05 8175.88
 9588.5211099.2612698.7914377.2316124.2617929.0819780.5921667.3623577.75   25500
27422.2529332.6431219.4133070.9234875.7436622.7738301.2139900.7441411.4842824.12
44129.9545320.9246389.6847329.6648135.0548800.8849323.0649698.3649924.48   50000
49924.4849698.3649323.0648800.8848135.0547329.6646389.6845320.9244129.9542824.12
41411.4839900.7438301.2136622.7734875.7433070.9231219.4129332.6427422.2526133.62
24907.8423741.8422632.7121577.6720574.0819619.4518711.3617847.57 17025.916244.31
15500.8414793.62 14120.913480.9912872.2812293.2611742.4911218.57 10720.210246.14
  9795.2 9366.26 8958.23  8570.1  8200.9 7849.71 7515.65 7197.88  6895.6 6608.07
 6334.56 6074.39 5826.91  5591.5 5367.57 5154.56 4951.94  4759.2 4575.86 4401.47
 4235.58 4077.77 3927.67 3784.89 3649.07 3519.87 3396.97 3280.07 3168.87 3063.09
 2962.48 2866.76 2775.72 2689.12 2606.74 2528.38 2453.84 2382.93 2315.49 2251.33
  2190.3 2132.25 2077.03  2024.5 1974.54 1927.01  1881.8 1838.79 1797.88 1758.97
 1721.95 1686.74 1653.25 1621.39 1591.09 1562.26 1534.84 1508.75 1483.94 1460.34
 1437.89 1416.53 1396.22 1376.89 1358.51 1341.03  1324.4 1308.57 1293.53 1279.21
Stage Hydrograph TW Check=0
DSS Path=
Use DSS=False
Use Fixed Start Time=False
Fixed Start Date/Time=,
Is Critical Boundary=False
Critical Boundary Flow=
Boundary Location=Bald Eagle      ,Loc Hav         ,81500   ,        ,                ,                ,                ,                                ,                                
Gate Name=Gate #1     
Gate DSS Path=
Gate Use DSS=False
Gate Time Interval=1HOUR
Gate Use Fixed Start Time=False
Gate Fixed Start Date/Time=,
Gate Openings= 150 
       6    6.23    6.45    6.68     6.9    7.13    7.35    7.58     7.8    8.03
    8.25    8.48     8.7    8.93    9.15    9.38     9.6    9.83   10.05   10.28
    10.5   10.73   10.95   11.18    11.4   11.63   11.85   12.08    12.3   12.53
   12.75   12.98    13.2   13.43   13.65   13.88    14.1   14.33   14.55   14.78
      15   14.83   14.66   14.49   14.32   14.15   13.98   13.81   13.64   13.47
   13.31   13.14   12.97    12.8   12.63   12.46   12.29   12.12   11.95   11.78
   11.61   11.44   11.27    11.1   10.93   10.76   10.59   10.42   10.25   10.08
    9.92    9.75    9.58    9.41    9.24    9.07     8.9    8.73    8.56    8.39
    8.22    8.05    7.88    7.71    7.54    7.37     7.2    7.03    6.86    6.69
    6.53    6.36    6.19    6.02    5.85    5.68    5.51    5.34    5.17       5
       5       5       5       5       5       5       5       5       5       5
       5       5       5       5       5       5       5       5       5       5
       5       5       5       5       5       5       5       5       5       5
       5       5       5       5       5       5       5       5       5       5
       5       5       5       5       5       5       5       5       5       5
Boundary Location=Bald Eagle      ,Loc Hav         ,659.942 ,        ,                ,                ,                ,                                ,                                
Rating Curve= 7 
   529.2       0     535    1000     540    3000   557.3   16500   562.1   27000
   564.1   32500   568.6   47000
DSS Path=
Use DSS=False
Use Fixed Start Time=False
Fixed Start Date/Time=,
Is Critical Boundary=False
Critical Boundary Flow=
Met Point Raster Parameters=,,,,
Precipitation Mode=Disable
Wind Mode=No Wind Forces
Air Density Mode=Specified
Met BC=Precipitation|Mode=None
Met BC=Precipitation|Expanded View=0
Met BC=Precipitation|Constant Units=mm/hr
Met BC=Precipitation|Point Interpolation=
Met BC=Precipitation|Gridded Source=DSS
Met BC=Evapotranspiration|Mode=None
Met BC=Evapotranspiration|Expanded View=0
Met BC=Evapotranspiration|Point Interpolation=Nearest
Met BC=Evapotranspiration|Gridded Source=DSS
Met BC=Wind Speed|Expanded View=0
Met BC=Wind Speed|Point Interpolation=Nearest
Met BC=Wind Speed|Gridded Source=DSS
Met BC=Wind Direction|Expanded View=0
Met BC=Wind Direction|Point Interpolation=Nearest
Met BC=Wind Direction|Gridded Source=DSS
Met BC=Wind Velocity X|Expanded View=0
Met BC=Wind Velocity X|Point Interpolation=Nearest
Met BC=Wind Velocity X|Gridded Source=DSS
Met BC=Wind Velocity Y|Expanded View=0
Met BC=Wind Velocity Y|Point Interpolation=Nearest
Met BC=Wind Velocity Y|Gridded Source=DSS
Met BC=Air Density|Mode=Constant
Met BC=Air Density|Expanded View=0
Met BC=Air Density|Constant Value=1.225
Met BC=Air Density|Constant Units=kg/m3
Met BC=Air Density|Point Interpolation=Nearest
Met BC=Air Density|Gridded Source=DSS
Met BC=Air Temperature|Expanded View=0
Met BC=Air Temperature|Point Interpolation=Nearest
Met BC=Air Temperature|Gridded Source=DSS
Met BC=Humidity|Expanded View=0
Met BC=Humidity|Point Interpolation=Nearest
Met BC=Humidity|Gridded Source=DSS
Met BC=Air Pressure|Mode=Constant
Met BC=Air Pressure|Expanded View=0
Met BC=Air Pressure|Constant Value=1013.2
Met BC=Air Pressure|Constant Units=mb
Met BC=Air Pressure|Point Interpolation=Inv Distance
Met BC=Air Pressure|Gridded Source=DSS
Non-Newtonian Method= 0 , 
Non-Newtonian Constant Vol Conc=0
Non-Newtonian Yield Method= 0 , 
Non-Newtonian Yield Coef=0, 0
User Yeild=   0
Non-Newtonian Sed Visc= 0 , 
Non-Newtonian Obrian B=0
User Viscosity=0
User Viscosity Ratio=0
Herschel-Bulkley Coef=0, 0
Clastic Method= 0 , 
Coulomb Phi=0
Voellmy X=0
Non-Newtonian Hindered FV= 0 
Non-Newtonian FV K=0
Non-Newtonian ds=0
Non-Newtonian Max Cv=0
Non-Newtonian Bulking Method= 0 , 
Non-Newtonian High C Transport= 0 , 
Lava Activation= 0 
Temperature=1300,15,,15,14,980
Heat Ballance=1,1200,0.5,1,70,0.95
Viscosity=1000,,,
Yield Strength=,,,
Consistency Factor=,,,
Profile Coefficient=4,1.3,
Lava Param=,2500,
